$ Finite Element Mesh - PTC Inc. - MSC/NASTRAN 2012 - 000-016-1364
$
SOL SESTATIC
APP HEAT
CEND
ANALYSIS = HEAT
THERMAL = ALL
FLUX = ALL
SPCFORCES = ALL
OLOAD = ALL
SUBCASE = 1
   SPC = 161
BEGIN BULK
PARAM,POST,0
PARAM,AUTOSPC,YES
$ Global Coordinate System of the model
CORD2R,1,0,0.,0.,0.,0.,0.,1.,
,1.,0.,0.
$ ----------------------------------------
$ Mesh "000-016-1364"
$ Included Components :
$   000-016-1364
$ Coordinate System for grid coordinates
CORD2R,2,1,0.,0.,0.,0.,0.,1.,
,1.,0.,0.
$ Coordinate System for default grid displacement
CORD2R,3,2,0.,0.,0.,0.,0.,1.,
,1.,0.,0.
MAT4,1,236.,8.93E8,2.7E-9
PSHELL,1,1,3.,1,,1
GRID,1,2,-50.,0.,-50.,3
GRID,2,2,-50.,0.,50.,3
GRID,3,2,150.,0.,-50.,3
GRID,4,2,150.,0.,50.,3
GRID,5,2,-50.,0.,-30.,3
GRID,6,2,-50.,0.,-10.,3
GRID,7,2,-50.,0.,10.,3
GRID,8,2,-50.,0.,30.,3
GRID,9,2,130.,0.,-50.,3
GRID,10,2,110.,0.,-50.,3
GRID,11,2,90.,0.,-50.,3
GRID,12,2,70.,0.,-50.,3
GRID,13,2,50.,0.,-50.,3
GRID,14,2,30.,0.,-50.,3
GRID,15,2,10.,0.,-50.,3
GRID,16,2,-10.,0.,-50.,3
GRID,17,2,-30.,0.,-50.,3
GRID,18,2,150.,0.,30.,3
GRID,19,2,150.,0.,10.,3
GRID,20,2,150.,0.,-10.,3
$ ... 46 like lines cut
CQUAD4,1,1,66,21,3,9,,0.,
CQUAD4,2,1,65,66,9,10,,0.,
CQUAD4,3,1,64,65,10,11,,0.,
CQUAD4,4,1,63,64,11,12,,0.,
CQUAD4,5,1,62,63,12,13,,0.,
CQUAD4,6,1,61,62,13,14,,0.,
CQUAD4,7,1,60,61,14,15,,0.,
CQUAD4,8,1,59,60,15,16,,0.,
CQUAD4,9,1,58,59,16,17,,0.,
CQUAD4,10,1,5,58,17,1,,0.,
CQUAD4,11,1,57,20,21,66,,0.,
CQUAD4,12,1,56,57,66,65,,0.,
CQUAD4,13,1,55,56,65,64,,0.,
CQUAD4,14,1,54,55,64,63,,0.,
CQUAD4,15,1,53,54,63,62,,0.,
CQUAD4,16,1,52,53,62,61,,0.,
CQUAD4,17,1,51,52,61,60,,0.,
CQUAD4,18,1,50,51,60,59,,0.,
CQUAD4,19,1,49,50,59,58,,0.,
CQUAD4,20,1,6,49,58,5,,0.,
$ ... 30 like lines cut
$ ----------------------------------------
SPC,161,1,,2.
SPC,161,2,,2.
SPC,161,3,,1.
SPC,161,4,,1.
SPC,161,5,,2.
SPC,161,6,,2.
SPC,161,7,,2.
SPC,161,8,,2.
SPC,161,18,,1.
SPC,161,19,,1.
SPC,161,20,,1.
SPC,161,21,,1.
ENDDATA
