$ Finite Element Mesh - PTC Inc. - MSC/NASTRAN 2012 - 000-016-5706
$
SOL SESTATIC
APP HEAT
CEND
ANALYSIS = HEAT
THERMAL = ALL
FLUX = ALL
SPCFORCES = ALL
OLOAD = ALL
SUBCASE = 1
   SPC = 157
   LOAD = 57
BEGIN BULK
PARAM,POST,0
PARAM,AUTOSPC,YES
$ Global Coordinate System of the model
CORD2R,1,0,0.,0.,0.,0.,0.,1.,
,1.,0.,0.
$ ----------------------------------------
$ Mesh "000-016-5706"
$ Included Components :
$   000-016-5706
$ Coordinate System for grid coordinates
CORD2R,2,1,0.,0.,0.,0.,0.,1.,
,1.,0.,0.
$ Coordinate System for default grid displacement
CORD2R,3,2,0.,0.,0.,0.,0.,1.,
,1.,0.,0.
MAT4,1,0.1,0.1,1.E-10
PSHELL,1,1,2.,1,,1
PSHELL,2,1,10.,1,,1
PSOLID,3,1
GRID,1,2,-133.604,66.8019,0.,3
GRID,2,2,-133.604,-66.8019,0.,3
GRID,3,2,133.604,-66.8019,0.,3
GRID,4,2,133.604,66.8019,0.,3
GRID,5,2,0.,-66.8019,0.,3
GRID,6,2,0.,66.8019,0.,3
GRID,7,2,133.604,0.,300.,3
GRID,8,2,133.604,-66.8019,300.,3
GRID,9,2,-133.604,0.,300.,3
GRID,10,2,66.8019,0.,300.,3
GRID,11,2,0.,0.,300.,3
GRID,12,2,-66.8019,0.,300.,3
GRID,13,2,80.1623,66.8019,300.,3
GRID,14,2,26.7208,66.8019,300.,3
GRID,15,2,-26.7208,66.8019,300.,3
GRID,16,2,-80.1623,66.8019,300.,3
GRID,17,2,-70.9445,-66.8019,300.,3
GRID,18,2,-8.28523,-66.8019,300.,3
GRID,19,2,54.3741,-66.8019,300.,3
GRID,20,2,-133.604,33.7872,300.,3
$ ... 100 like lines cut
CTRIA3,1,1,86,12,81,,0.,,
CTRIA3,2,1,85,86,82,,0.,,
CTRIA3,3,1,84,11,86,,0.,,
CTRIA3,4,1,80,85,83,,0.,,
CTRIA3,5,1,79,84,85,,0.,,
CTRIA3,6,1,78,10,84,,0.,,
CTRIA3,7,1,12,9,81,,0.,,
CTRIA3,8,1,86,81,82,,0.,,
CTRIA3,9,1,11,12,86,,0.,,
CTRIA3,10,1,85,82,83,,0.,,
CTRIA3,11,1,84,86,85,,0.,,
CTRIA3,12,1,10,11,84,,0.,,
CTRIA3,13,1,80,83,77,,0.,,
CTRIA3,14,1,79,85,80,,0.,,
CTRIA3,15,1,78,84,79,,0.,,
CTRIA3,16,1,7,10,78,,0.,,
CTRIA3,17,1,96,93,88,,0.,,
CTRIA3,18,1,95,96,89,,0.,,
CTRIA3,19,1,94,92,96,,0.,,
CTRIA3,20,1,78,95,90,,0.,,
$ ... 12 like lines cut
CQUAD4,33,2,111,102,87,93,,0.,
CQUAD4,34,2,110,111,93,92,,0.,
CQUAD4,35,2,109,110,92,91,,0.,
CQUAD4,36,2,97,109,91,77,,0.,
CQUAD4,37,2,108,101,102,111,,0.,
CQUAD4,38,2,107,108,111,110,,0.,
CQUAD4,39,2,106,107,110,109,,0.,
CQUAD4,40,2,98,106,109,97,,0.,
CQUAD4,41,2,105,100,101,108,,0.,
CQUAD4,42,2,104,105,108,107,,0.,
CQUAD4,43,2,103,104,107,106,,0.,
CQUAD4,44,2,99,103,106,98,,0.,
CQUAD4,45,2,55,54,100,105,,0.,
CQUAD4,46,2,56,55,105,104,,0.,
CQUAD4,47,2,57,56,104,103,,0.,
CQUAD4,48,2,51,57,103,99,,0.,
CTETRA,49,3,112,23,113,50
CTETRA,50,3,114,6,4,3
CTETRA,51,3,112,115,50,113
CTETRA,52,3,112,113,38,37
CTETRA,53,3,112,37,115,113
CTETRA,54,3,116,41,46,47
CTETRA,55,3,116,117,48,47
CTETRA,56,3,116,117,118,10
CTETRA,57,3,116,119,47,46
CTETRA,58,3,40,46,42,41
CTETRA,59,3,46,42,41,116
CTETRA,60,3,18,118,19,42
CTETRA,61,3,118,19,42,116
CTETRA,62,3,112,50,115,33
CTETRA,63,3,115,42,36,35
CTETRA,64,3,115,5,114,42
CTETRA,65,3,115,50,32,33
CTETRA,66,3,115,114,6,50
CTETRA,67,3,50,114,42,115
CTETRA,68,3,114,50,44,6
$ ... 165 like lines cut
CHBDYE,234,152,2
CHBDYE,235,136,3
CHBDYE,236,159,3
CHBDYE,237,150,4
CHBDYE,238,151,4
CHBDYE,239,110,3
CHBDYE,240,122,3
CHBDYE,241,126,2
CHBDYE,242,132,1
CHBDYE,243,140,4
CHBDYE,244,84,4
CHBDYE,245,164,3
CHBDYE,246,133,3
CHBDYE,247,147,1
CHBDYE,248,124,3
$ ----------------------------------------
SPC,157,3,,-259.15
SPC,157,4,,-259.15
SPC,157,7,,-259.15
SPC,157,8,,-259.15
SPC,157,21,,-259.15
SPC,157,40,,-259.15
SPC,157,41,,-259.15
SPC,157,43,,-259.15
SPC,157,44,,-259.15
SPC,157,45,,-259.15
SPC,157,46,,-259.15
SPC,157,47,,-259.15
SPC,157,48,,-259.15
SPC,157,49,,-259.15
SPC,157,65,,-261.15
SPC,157,67,,-261.15
SPC,157,71,,-261.15
QBDY1,57,2.49494E-11,234
QBDY1,57,2.49494E-11,235
QBDY1,57,2.49494E-11,236
QBDY1,57,2.49494E-11,237
QBDY1,57,2.49494E-11,238
QBDY1,57,2.49494E-11,239
QBDY1,57,2.49494E-11,240
QBDY1,57,2.49494E-11,241
QBDY1,57,2.49494E-11,242
QBDY1,57,2.49494E-11,243
QBDY1,57,2.49494E-11,244
QBDY1,57,2.49494E-11,245
QBDY1,57,2.49494E-11,246
QBDY1,57,2.49494E-11,247
QBDY1,57,2.49494E-11,248
ENDDATA
